CM ********************
CM NEC Input File
CM	This is a 5 element array 
CM	of dipoles with a full
CM	azimuth cut at the horizon
CM	in free space
CM	
CM	The excitation is currently a Theta polarized
CM	plane wave
CM ********************
CE

GW     1    11   0.00000E+00 -2.00000E+00 -2.30000E-01  0.00000E+00 -2.00000E+00  2.30000E-01  4.00000E-02
GW     2    11   0.00000E+00 -1.00000E+00 -2.30000E-01  0.00000E+00 -1.00000E+00  2.30000E-01  4.00000E-02
GW     3    11   0.00000E+00  0.00000E+00 -2.30000E-01  0.00000E+00  0.00000E+00  2.30000E-01  4.00000E-02
GW     4    11   0.00000E+00  1.00000E+00 -2.30000E-01  0.00000E+00  1.00000E+00  2.30000E-01  4.00000E-02
GW     5    11   0.00000E+00  2.00000E+00 -2.30000E-01  0.00000E+00  2.00000E+00  2.30000E-01  4.00000E-02
GE	0

EX 1 2 361 0 90 0 0 1 1 
FR 0 10 0 0 1.99800E+02 1.00000E+01 0.00000E+00 0.00000E+00 0.00000E+00 0.00000E+00
PT 1 1 6 
XQ
FR 0 10 0 0 1.99800E+02 1.00000E+01 0.00000E+00 0.00000E+00 0.00000E+00 0.00000E+00
PT 1 2 6 
XQ
FR 0 10 0 0 1.99800E+02 1.00000E+01 0.00000E+00 0.00000E+00 0.00000E+00 0.00000E+00
PT 1 3 6 
XQ
FR 0 10 0 0 1.99800E+02 1.00000E+01 0.00000E+00 0.00000E+00 0.00000E+00 0.00000E+00
PT 1 4 6 
XQ
FR 0 10 0 0 1.99800E+02 1.00000E+01 0.00000E+00 0.00000E+00 0.00000E+00 0.00000E+00
PT 1 5 6 
XQ
EN
