CM ********************
CM NEC Input File
CM	This is a 5 element array 
CM	of dipoles with a full
CM	azimuth cut at the horizon
CM	in free space
CM ********************
CE

GW     1    11   0.00000E+00 -2.00000E+00 -2.30000E-01  0.00000E+00 -2.00000E+00  2.30000E-01  4.00000E-02
GW     2    11   0.00000E+00 -1.00000E+00 -2.30000E-01  0.00000E+00 -1.00000E+00  2.30000E-01  4.00000E-02
GW     3    11   0.00000E+00  0.00000E+00 -2.30000E-01  0.00000E+00  0.00000E+00  2.30000E-01  4.00000E-02
GW     4    11   0.00000E+00  1.00000E+00 -2.30000E-01  0.00000E+00  1.00000E+00  2.30000E-01  4.00000E-02
GW     5    11   0.00000E+00  2.00000E+00 -2.30000E-01  0.00000E+00  2.00000E+00  2.30000E-01  4.00000E-02
GE	0
EX     0     1     5      6  1.00000E+00  0.00000E+00  0.00000E+00  0.00000E+00  0.00000E+00  0.00000E+00
EX     0     1     5      6  1.00000E+00  0.00000E+00  0.00000E+00  0.00000E+00  0.00000E+00  0.00000E+00
EX     0     2     5      6  1.00000E+00  0.00000E+00  0.00000E+00  0.00000E+00  0.00000E+00  0.00000E+00
EX     0     3     5      6  1.00000E+00  0.00000E+00  0.00000E+00  0.00000E+00  0.00000E+00  0.00000E+00
EX     0     4     5      6  1.00000E+00  0.00000E+00  0.00000E+00  0.00000E+00  0.00000E+00  0.00000E+00
EX     0     5     5      6  1.00000E+00  0.00000E+00  0.00000E+00  0.00000E+00  0.00000E+00  0.00000E+00
FR     0    10     0      0  1.99800E+02  1.00000E+01  0.00000E+00  0.00000E+00  0.00000E+00  0.00000E+00
RP     0     1   361   1000  9.00000E+01  0.00000E+00  1.00000E+00  1.00000E+00  0.00000E+00  0.00000E+00
EN     0     0     0      0  0.00000E+00  0.00000E+00  0.00000E+00  0.00000E+00  0.00000E+00  0.00000E+00
